Rede_03/_trafo3/ckt03_VLN_Node.Txt

LINE-GROUND and LINE-LINE VOLTAGES BY BUS & NODE

Bus                   Node    VLN (kV)   Angle      pu     Base kV    Node-Node   VLL (kV)  Angle      pu

BUS_XFMR_PRI_33998182 1       6.8702 /_    0.0   0.99997    11.900        1-2       11.9 /_   30.0   0.99997
   -                  2       6.8703 /_ -120.0   0.99997    11.900        2-3       11.9 /_  -90.0   0.99997
   -                  3       6.8702 /_  120.0   0.99997    11.900        3-1       11.9 /_  150.0   0.99996
BUS_XFMR_SEC_33998182 1      0.12617 /_  -30.2   0.99336     0.220        1-2    0.21888 /_   -0.1   0.99489
   -                  2      0.12671 /_ -150.1   0.99755     0.220        2-3    0.21903 /_ -120.1   0.99561
   -                  3      0.12626 /_   89.9   0.99402     0.220        3-1    0.21878 /_  119.9   0.99443
   -                  4   0.00017003 /_ -155.2 0.0013386     0.220
BUS_33998182_001 .... 1      0.12602 /_  -30.2   0.99211     0.220        1-2    0.21865 /_   -0.1   0.99387
   -                  2       0.1266 /_ -150.1   0.99669     0.220        2-3    0.21885 /_ -120.1   0.99475
   -                  3      0.12615 /_   90.0   0.99315     0.220        3-1    0.21853 /_  119.9   0.99333
   -                  4   0.00014867 /_ -149.7 0.0011705     0.220
BUS_33998182_013 .... 3      0.12626 /_   89.9   0.99402     0.220
   -                  4   0.00017003 /_ -155.2 0.0013386     0.220
BUS_33998182_006 .... 1       0.1259 /_  -30.2    0.9912     0.220        1-2    0.21854 /_    0.0   0.99334
   -                  2      0.12658 /_ -150.1   0.99653     0.220        2-3    0.21866 /_ -120.1   0.99393
   -                  3      0.12597 /_   90.0   0.99178     0.220        3-1    0.21829 /_  119.9   0.99224
   -                  4   8.8495E-005 /_ -158.4 0.00069672     0.220
BUS_33998182_014 .... 1      0.12602 /_  -30.2   0.99211     0.220        1-2    0.21865 /_   -0.1   0.99387
   -                  2       0.1266 /_ -150.1   0.99669     0.220        2-3    0.21885 /_ -120.1   0.99475
   -                  3      0.12615 /_   90.0   0.99315     0.220        3-1    0.21853 /_  119.9   0.99333
   -                  4   0.00014867 /_ -149.7 0.0011705     0.220
BUS_33998182_002 .... 1      0.12598 /_  -30.2    0.9918     0.220        1-2     0.2186 /_    0.0   0.99366
   -                  2      0.12658 /_ -150.1   0.99655     0.220        2-3    0.21883 /_ -120.1   0.99468
   -                  3      0.12614 /_   90.0   0.99313     0.220        3-1    0.21849 /_  119.9   0.99314
   -                  4   0.00014393 /_ -145.3 0.0011331     0.220
BUS_33998182_003 .... 1      0.12586 /_  -30.2   0.99092     0.220        1-2    0.21842 /_    0.0   0.99282
   -                  2      0.12648 /_ -150.1   0.99575     0.220        2-3    0.21862 /_ -120.1   0.99374
   -                  3      0.12601 /_   90.0   0.99206     0.220        3-1    0.21828 /_  119.9   0.99217
   -                  4   0.00012911 /_ -147.1 0.0010165     0.220
BUS_33998182_015 .... 1      0.12597 /_  -30.2   0.99173     0.220
   -                  4   0.00014624 /_ -141.3 0.0011513     0.220
BUS_33998182_016 .... 2      0.12658 /_ -150.1   0.99653     0.220        2-3    0.21882 /_ -120.1   0.99466
   -                  3      0.12614 /_   90.0    0.9931     0.220
   -                  4   0.00014165 /_ -147.3 0.0011152     0.220
BUS_33998182_004 .... 1      0.12592 /_  -30.2   0.99133     0.220        1-2    0.21853 /_    0.0   0.99332
   -                  2      0.12655 /_ -150.1   0.99629     0.220        2-3    0.21881 /_ -120.1   0.99458
   -                  3      0.12615 /_   90.0   0.99315     0.220        3-1    0.21843 /_  119.9   0.99287
   -                  4   0.00014507 /_ -137.4 0.0011421     0.220
BUS_33998182_005 .... 1      0.12583 /_  -30.2   0.99063     0.220        1-2    0.21839 /_    0.0   0.99268
   -                  2      0.12647 /_ -150.1   0.99572     0.220        2-3    0.21858 /_ -120.1   0.99357
   -                  3      0.12597 /_   90.0   0.99179     0.220        3-1    0.21822 /_  119.9   0.99189
   -                  4   0.00011252 /_ -147.1 0.00088584     0.220
BUS_33998182_017 .... 1       0.1258 /_  -30.1   0.99045     0.220        1-2    0.21832 /_    0.0   0.99237
   -                  2      0.12642 /_ -150.0    0.9953     0.220        2-3    0.21852 /_ -120.1   0.99329
   -                  3      0.12595 /_   90.0   0.99161     0.220        3-1    0.21818 /_  119.9   0.99171
   -                  4   0.00012879 /_ -147.1 0.0010139     0.220
BUS_33998182_018 .... 1       0.1259 /_  -30.2    0.9912     0.220
   -                  4   0.00015308 /_ -130.1 0.0012052     0.220
BUS_33998182_019 .... 2      0.12653 /_ -150.1    0.9962     0.220        2-3     0.2188 /_ -120.1   0.99456
   -                  3      0.12615 /_   90.0   0.99315     0.220
   -                  4   0.00015368 /_ -141.5 0.0012099     0.220
BUS_33998182_020 .... 1      0.12583 /_  -30.2   0.99062     0.220        1-2    0.21839 /_    0.0   0.99267
   -                  2      0.12647 /_ -150.1   0.99571     0.220        2-3    0.21858 /_ -120.1   0.99355
   -                  3      0.12597 /_   90.0   0.99178     0.220        3-1    0.21821 /_  119.9   0.99188
   -                  4    0.0001123 /_ -147.2 0.00088411     0.220
BUS_33998182_021 .... 1      0.12581 /_  -30.1   0.99052     0.220
   -                  3      0.12596 /_   90.0   0.99168     0.220        3-1    0.21819 /_  119.9   0.99178
   -                  4   9.9309E-005 /_ -140.5 0.00078186     0.220
BUS_33998182_022 .... 2      0.12657 /_ -150.1    0.9965     0.220
   -                  4   9.2088E-005 /_ -160.4 0.00072501     0.220
BUS_33998182_007 .... 1      0.12573 /_  -30.1   0.98983     0.220        1-2    0.21833 /_    0.0   0.99241
   -                  2       0.1265 /_ -150.0   0.99595     0.220        2-3    0.21844 /_ -120.1   0.99289
   -                  3      0.12579 /_   90.0   0.99037     0.220        3-1    0.21799 /_  119.9   0.99086
   -                  4   3.3988E-005 /_ -168.4 0.00026758     0.220
BUS_33998182_023 .... 2      0.12658 /_ -150.1   0.99653     0.220        2-3    0.21866 /_ -120.1   0.99393
   -                  3      0.12597 /_   90.0   0.99178     0.220
   -                  4   8.8204E-005 /_ -158.5 0.00069443     0.220
BUS_33998182_008 .... 1      0.12567 /_  -30.1   0.98939     0.220        1-2     0.2182 /_    0.0    0.9918
   -                  2      0.12641 /_ -150.0   0.99526     0.220        2-3    0.21818 /_ -120.1   0.99174
   -                  3       0.1256 /_   90.0   0.98886     0.220        3-1    0.21779 /_  120.0   0.98997
   -                  4   0.00010514 /_   89.8 0.00082779     0.220
BUS_33998182_009 .... 1      0.12566 /_  -30.1    0.9893     0.220        1-2    0.21827 /_    0.0   0.99214
   -                  2      0.12649 /_ -150.0   0.99589     0.220        2-3     0.2184 /_ -120.1   0.99273
   -                  3      0.12576 /_   90.0   0.99013     0.220        3-1     0.2179 /_  119.9   0.99046
   -                  4   3.0643E-005 /_  -64.8 0.00024125     0.220
BUS_33998182_010 .... 1      0.12571 /_  -30.1   0.98968     0.220        1-2    0.21832 /_    0.0   0.99235
   -                  2       0.1265 /_ -150.0   0.99596     0.220        2-3    0.21844 /_ -120.1    0.9929
   -                  3      0.12579 /_   90.0   0.99037     0.220        3-1    0.21797 /_  119.9   0.99077
   -                  4   2.6025E-005 /_ -158.0 0.00020489     0.220
BUS_33998182_024 .... 2       0.1264 /_ -150.0   0.99516     0.220        2-3    0.21815 /_ -120.1   0.99161
   -                  3      0.12558 /_   90.0   0.98872     0.220
   -                  4   0.00012431 /_   90.7 0.00097869     0.220
BUS_33998182_011 .... 1      0.12559 /_  -30.1   0.98879     0.220        1-2    0.21813 /_    0.0   0.99152
   -                  2      0.12641 /_ -150.0   0.99525     0.220        2-3      0.218 /_ -120.1   0.99092
   -                  3      0.12542 /_   90.1   0.98744     0.220        3-1    0.21759 /_  120.0   0.98904
   -                  4   0.00024678 /_   57.9 0.0019429     0.220
BUS_33998182_025 .... 2       0.1264 /_ -150.0   0.99515     0.220
   -                  4    0.0001085 /_   99.1 0.00085425     0.220
BUS_33998182_026 .... 1      0.12566 /_  -30.1    0.9893     0.220        1-2    0.21827 /_    0.0   0.99212
   -                  2      0.12649 /_ -150.0   0.99586     0.220
   -                  4   2.8333E-005 /_  -73.6 0.00022306     0.220
BUS_33998182_027 .... 3      0.12576 /_   90.0   0.99011     0.220
   -                  4   2.9572E-005 /_  -56.3 0.00023282     0.220
BUS_33998182_012 .... 1      0.12553 /_  -30.1   0.98829     0.220        1-2    0.21816 /_    0.1   0.99163
   -                  2      0.12648 /_ -150.0   0.99578     0.220        2-3    0.21834 /_ -120.1   0.99246
   -                  3      0.12571 /_   90.0    0.9897     0.220        3-1    0.21773 /_  119.9   0.98969
   -                  4   0.00011998 /_  -35.6 0.00094459     0.220
BUS_33998182_028 .... 1      0.12564 /_  -30.1   0.98918     0.220
   -                  4   5.0355E-005 /_  -65.8 0.00039644     0.220
BUS_33998182_029 .... 3      0.12576 /_   90.0   0.99009     0.220
   -                  4   2.9303E-005 /_  -49.0 0.0002307     0.220
BUS_33998182_030 .... 1      0.12569 /_  -30.1   0.98958     0.220
   -                  4   3.0215E-005 /_ -126.6 0.00023788     0.220
BUS_33998182_031 .... 3      0.12539 /_   90.1   0.98716     0.220
   -                  4   0.00029019 /_   57.0 0.0022847     0.220
BUS_33998182_032 .... 3      0.12538 /_   90.1   0.98712     0.220
   -                  4   0.00029594 /_   56.8 0.0023299     0.220
BUS_33998182_033 .... 1      0.12558 /_  -30.1   0.98867     0.220
   -                  4    0.0002353 /_   53.9 0.0018525     0.220
BUS_33998182_034 .... 1      0.12558 /_  -30.1   0.98869     0.220
   -                  3      0.12541 /_   90.1   0.98734     0.220        3-1    0.21757 /_  120.0   0.98894
   -                  4   0.00025306 /_   54.6 0.0019923     0.220
BUS_33998182_035 .... 1       0.1255 /_  -30.1   0.98807     0.220
   -                  4   0.00015025 /_  -42.7 0.0011829     0.220
BUS_33998182_036 .... 2      0.12648 /_ -150.0   0.99578     0.220
   -                  4   0.00011998 /_  -35.6 0.00094459     0.220
BUS_33998182_037 .... 3      0.12568 /_   90.0   0.98946     0.220
   -                  4     0.000126 /_  -18.6 0.00099202     0.220
BUS_33998182_038 .... 2      0.12648 /_ -150.0   0.99574     0.220
   -                  4   0.00011286 /_  -36.7 0.00088857     0.220
BUS_33998182_039 .... 1       0.1255 /_  -30.1   0.98805     0.220
   -                  4   0.00015322 /_  -43.2 0.0012063     0.220
